data_CSD_CIF_MOLDRAW
_audit_creation_date 11-21-2023
_audit_creation_method MOLDRAW
_chemical_formula_sum 'H12 C24 N20 F4 Zn2'
_chemical_formula_moiety
;
H12 C24 N20 F4 Zn2
;
loop_
_publ_author_name
Ugliengo
_cell_volume 694.4816
_exptl_crystal_density_diffrn ?
_diffrn_ambient_temperature ?
_refine_ls_R_factor_gt ?
_refine_ls_wR_factor_gt ?
_symmetry_space_group_name_H-M 'P 1'
_symmetry_cell_setting null
_symmetry_Int_Tables_number 1
loop_
_symmetry_equiv_pos_site_id
_symmetry_equiv_pos_as_xyz
1 x,y,z
_cell_length_a  9.739596
_cell_length_b  9.739596
_cell_length_c  9.739596
_cell_angle_alpha  114.84676
_cell_angle_beta  114.84676
_cell_angle_gamma  99.184516
_cell_formula_units_Z 1
loop_
_atom_type_symbol
_atom_type_radius_bond
H  .38
C  .77
N  .75
F  .71
Zn 1.35
loop_
_atom_site_label
_atom_site_type_symbol
_atom_site_fract_x
_atom_site_fract_y
_atom_site_fract_z
H1   H     0.7654137552862   6.63087109338499E-02   0.6530650312964
H2   H     0.4132436796374   0.112348723989799   0.3469349687036
H3   H     0.93369128906616   0.5867563203626   0.6991050443523
H4   H     0.8876512760102   0.2345862447138   0.3008949556477
H5   H     0.1268286713446   0.7729643257174   0.6074691923235
H6   H     0.165495133394   0.5193594790212   0.3925308076765
H7   H     0.2270356742826   0.834504866605999   0.3538643456272
H8   H     0.4806405209788   0.8731713286554   0.6461356543728
H9   H     0.1770295621264   0.986993861529089   0.90825028331763
H10   H     0.07874357821146   0.2687792788088   9.17497166823701E-02
H11   H     1.30061384709101E-02   0.92125642178854   0.1900357005973
H12   H     0.7312207211912   0.8229704378736   0.8099642994027
C1   C     0.8079772239242   0.890618491037499   0.4638233551192
C2   C     0.4267951359183   0.344153868805   0.5361766448808
C3   C     0.1093815089625   0.5732048640817   0.9173587328867
C4   C     0.655846131195   0.1920227760758   8.26412671132998E-02
C5   C     0.6741839229724   0.8767428716164   0.3082552418591
C6   C     0.5684876297573   0.3659286811132   0.6917447581409
C7   C     0.1232571283836   0.4315123702427   0.7974410513559
C8   C     0.634071318886799   0.325816077027599   0.2025589486441
C9   C     0.91285981481602   0.8082374413761   0.4574639729654
C10   C     0.3507734684107   0.4553958418506   0.5425360270346
C11   C     0.1917625586239   0.6492265315893   0.1046223734399
C12   C     0.544604158149399   8.71401851839797E-02   0.8953776265601
C13   C     7.30834451709107E-02   0.95451440635131   0.7792143094626
C14   C     0.1753000968887   0.293869135708299   0.2207856905374
C15   C     0.04548559364869   0.8246999031113   0.1185690388196
C16   C     0.7061308642917   0.92691655482909   0.8814309611804
C17   C     0.845003549763999   0.001499914399856   0.637659486033099
C18   C     0.3638404283667   0.2073440637309   0.3623405139669
C19   C     0.998500085600144   0.6361595716333   0.8435036353641
C20   C     0.7926559362691   0.154996450236   0.1564963646359
C21   C     0.2236158568237   0.4316844962862   0.386216220972
C22   C     0.04546827531421   0.8373996358517   0.613783779028
C23   C     0.5683155037138   0.954531724685791   0.791931360537501
C24   C     0.1626003641483   0.776384143176299   0.2080686394625
N1   N     0.634923497297499   6.94182040916651E-03   0.3194317931648
N2   N     0.6875100272444   0.3154917041327   0.680568206835201
N3   N     0.993058179590832   0.312489972755599   0.6279816768883
N4   N     0.684508295867299   0.3650765027025   0.3720183231117
N5   N     0.5001100975219   0.951516223762501   0.153008679856001
N6   N     0.798507543906499   0.347101417666   0.846991320143999
N7   N     0.0484837762375   0.201492456093499   0.5485938737594
N8   N     0.652898582334   0.4998899024781   0.4514061262406
N9   N     0.567296727138   0.7436217871449   0.1376665995091
N10   N     0.6059551876358   0.4296301276289   0.8623334004909
N11   N     0.2563782128551   0.3940448123642   0.8236749399931
N12   N     0.5703698723711   0.432703272862   0.1763250600069
N13   N     0.4597963622473   0.7937769762205   0.04383047138725
N14   N     0.7499465048333   0.4159658908601   0.95616952861275
N15   N     0.2062230237795   0.2500534951667   0.6660193860268
N16   N     0.5840341091399   0.5402036377527   0.333980613973199
N17   N     0.973828977656249   0.035089347928619   0.790658301063099
N18   N     0.2444310468655   0.183170676593099   0.2093416989369
N19   N     0.96491065207138   0.7555689531345   0.93873962972763
N20   N     0.8168293234069   2.61710223437494E-02   6.12603702723695E-02
F1   F     0.8865233426509   0.7008169821267   0.296132174013
F2   F     0.4046848081138   0.590391168637899   0.703867825987
F3   F     0.2991830178733   0.5953151918862   0.185706360524201
F4   F     0.409608831362099   0.113476657349099   0.8142936394758
Zn1   Zn     0.75   0.249999999999999   0.5
Zn2   Zn     0.5   0.5   -3.46239963783246E-16
#END
